[General]
network = ${FloodSub0, FloodSub1, FloodSub2, FloodSub3, FloodSub4, FloodSub5, FloodSub6, FloodSub7, FloodSub8, FloodSub9}
sim-time-limit = 600s

FloodSub*.txRate = 10.0

outputvectormanager-class="omnetpp::envir::SqliteOutputVectorManager"
outputscalarmanager-class="omnetpp::envir::SqliteOutputScalarManager"
