[General]
network = FloodSub
sim-time-limit = 60s

FloodSub.txRate = 10.0
