[General]
description = "GossipSub"
result-dir = results-gossipsub

ned-path=../../src/

cmdenv-express-mode = true
cmdenv-event-banners = false
cmdenv-output-file = "${resultdir}/log"
cmdenv-log-prefix = "[%l] %m: "
cmdenv-redirect-output = true

**.cmdenv-log-level = warn



network = sharding.GossipSubNetwork
*Network.nodeCount = ${100, 500, 1000, 5000, 10000, 20000}
*Network.gossipRate = 10.0Hz

sim-time-limit = 600s
*Network.nodes[*].source.active = true
*Network.nodes[*].source.startTime = 20s
*Network.nodes[*].source.stopTime = 580s

*Network.nodes[*].lazyNotifier.notificationInterval = 0.1s
*Network.nodes[*].missingTracker.waitTime = 2s

*Network.nodes[*].connectionManager.numRandomNeighbors = 5
*Network.nodes[*].connectionManager.numNearNeighbors = 5
*Network.nodes[*].connectionManager.passiveListSize = 20
*Network.nodes[*].connectionManager.contactNodes = "0 1 2"

*Network.nodes[*].connectionManager.activeHeartbeatInterval = 2.0
*Network.nodes[*].connectionManager.joinTTL = 1
*Network.nodes[*].connectionManager.forwardJoinTTL = 1

*Network.nodes[*].connectionManager.shuffleInterval = 2.0
*Network.nodes[*].connectionManager.activeShufflingSize = 5
*Network.nodes[*].connectionManager.passiveShufflingSize = 5
*Network.nodes[*].connectionManager.shuffleTTL = 1
