[General]
result-dir = results
output-vector-file = "${resultdir}/${configname}-${runnumber}.vec"
output-scalar-file = "${resultdir}/${configname}-${runnumber}.sca"
cmdenv-output-file = "${resultdir}/log-${configname}-${runnumber}"

ned-path=../../src/

cmdenv-express-mode = false
cmdenv-event-banners = false
cmdenv-log-prefix = "[%l] %t %m: "
cmdenv-redirect-output = false

**.cmdenv-log-level = WARN

repeat = 1


network = sharding.Network
sim-time-limit = 12015s

Network.nodeCount = ${N=1000}
#Network.gossipRate = ${R=0.4Hz, 0.5Hz, 0.6Hz, 0.7Hz, 0.8Hz, 0.9Hz, 1.0Hz}
Network.gossipRate = ${R=0.2Hz}
Network.gossipBitLength = ${S=2 * 1024 * 1024 * 8, 1 * 1024 * 1024 * 8, 512 * 1024 * 8, 128 * 1024 * 8}

Network.periodic = true
Network.startTime = 5s
Network.stopTime = 12005s

Network.nodeManager.bootstrapNodeCount = ${N}
Network.nodeManager.targetNodeCount = ${N}
Network.nodeManager.rampUpTime = 0s

Network.nodes[*].discovererType = "sharding.mock_discoverer.MockDiscoverer"
Network.nodes[*].discoverer.nodeCount = ${N}
Network.nodes[*].discoverer.minPeers = 15

Network.nodes[*].gossiperType = "sharding.gossipsub.GossipSubGossiper"


# gossipsub
Network.nodes[*].gossiper.mbitPerPeer = ${r=5}
Network.nodes[*].gossiper.lowWatermarkFraction = 0.7
Network.nodes[*].gossiper.highWatermarkFraction = 1.5
Network.nodes[*].gossiper.maxPeers = 15

Network.nodes[*].gossiper.heartbeatInterval = 2s
