[General]
result-dir = results
output-vector-file = "${resultdir}/${configname}-${runnumber}.vec"
output-scalar-file = "${resultdir}/${configname}-${runnumber}.sca"
cmdenv-output-file = "${resultdir}/log-${configname}-${runnumber}"

ned-path=../../src/

cmdenv-express-mode = false
cmdenv-event-banners = false
cmdenv-log-prefix = "[%l] %t %m: "
cmdenv-redirect-output = false

**.cmdenv-log-level = WARN

repeat = 1


network = sharding.Network
sim-time-limit = 10000s

Network.nodeCount = ${N=1000}
Network.gossipRate = ${R=0.8Hz, 0.4Hz, 0.2Hz, 0.14Hz, 0.12Hz, 0.1Hz, 0.08Hz, 0.06Hz, 0.04Hz, 0.02Hz}

Network.periodic = true
Network.startTime = 5s
Network.stopTime = 6005s

Network.nodeManager.bootstrapNodeCount = ${N}
Network.nodeManager.targetNodeCount = ${N}
Network.nodeManager.rampUpTime = 0s

Network.nodes[*].discovererType = "sharding.mock_discoverer.MockDiscoverer"
Network.nodes[*].discoverer.nodeCount = ${N}
Network.nodes[*].discoverer.minPeers = 5

Network.nodes[*].gossiperType = "sharding.gossipsub.GossipSubGossiper"


# gossipsub
Network.nodes[*].gossiper.targetMeshDegree = ${M=5}
Network.nodes[*].gossiper.lowWatermark = ${M}
Network.nodes[*].gossiper.highWatermark = ${M}

Network.nodes[*].gossiper.heartbeatInterval = 2s
